# CIF file generated by openbabel 2.4.90, see http://openbabel.sf.net
data_I
_chemical_name_common ''
_cell_length_a 24.4635
_cell_length_b 24.4635
_cell_length_c 112.996
_cell_angle_alpha 90
_cell_angle_beta 90
_cell_angle_gamma 120
_space_group_name_H-M_alt 'P 1'
_space_group_name_Hall 'P 1'
loop_
    _symmetry_equiv_pos_as_xyz
    x,y,z
loop_
    _atom_site_label
    _atom_site_type_symbol
    _atom_site_fract_x
    _atom_site_fract_y
    _atom_site_fract_z
    _atom_site_occupancy
    Zn0     Zn   0.00000   0.00000   0.57964   1.000
    Zn1     Zn   0.97026   0.05473   0.55658   1.000
    Zn2     Zn   0.24871   0.61158   0.48622   1.000
    Zn3     Zn   0.33330   0.66670   0.46351   1.000
    Zn4     Zn   0.58220   0.30359   0.77675   1.000
    Zn5     Zn   0.05509   0.97046   0.81955   1.000
    Zn6     Zn   0.02954   0.08462   0.81955   1.000
    Zn7     Zn   0.94527   0.91553   0.55658   1.000
    Zn8     Zn   0.00000   0.00000   0.92036   1.000
    Zn9     Zn   0.00000   0.00000   0.42036   1.000
    Zn10    Zn   0.00000   0.00000   0.07964   1.000
    Zn11    Zn   0.66667   0.33333   0.91297   1.000
    Zn12    Zn   0.66667   0.33333   0.25369   1.000
    Zn13    Zn   0.66667   0.33333   0.75369   1.000
    Zn14    Zn   0.66667   0.33333   0.41297   1.000
    Zn15    Zn   0.33333   0.66667   0.24631   1.000
    Zn16    Zn   0.33333   0.66667   0.58703   1.000
    Zn17    Zn   0.33333   0.66667   0.08703   1.000
    Zn18    Zn   0.33333   0.66667   0.74631   1.000
    Zn19    Zn   0.38842   0.63713   0.48622   1.000
    Zn20    Zn   0.36287   0.75129   0.48622   1.000
    Zn21    Zn   0.08447   0.02974   0.55658   1.000
    Zn22    Zn   0.05473   0.97026   0.94342   1.000
    Zn23    Zn   0.91553   0.94527   0.94342   1.000
    Zn24    Zn   0.02974   0.08447   0.94342   1.000
    Zn25    Zn   0.02974   0.94527   0.44342   1.000
    Zn26    Zn   0.05473   0.08447   0.44342   1.000
    Zn27    Zn   0.91553   0.97026   0.44342   1.000
    Zn28    Zn   0.94527   0.02974   0.05658   1.000
    Zn29    Zn   0.08447   0.05473   0.05658   1.000
    Zn30    Zn   0.97026   0.91553   0.05658   1.000
    Zn31    Zn   0.63693   0.38806   0.88991   1.000
    Zn32    Zn   0.61194   0.24886   0.88991   1.000
    Zn33    Zn   0.75114   0.36307   0.88991   1.000
    Zn34    Zn   0.72140   0.30359   0.27675   1.000
    Zn35    Zn   0.58220   0.27860   0.27675   1.000
    Zn36    Zn   0.69641   0.41780   0.27675   1.000
    Zn37    Zn   0.69641   0.27860   0.77675   1.000
    Zn38    Zn   0.72140   0.41780   0.77675   1.000
    Zn39    Zn   0.61194   0.36307   0.38991   1.000
    Zn40    Zn   0.75114   0.38806   0.38991   1.000
    Zn41    Zn   0.63693   0.24886   0.38991   1.000
    Zn42    Zn   0.30359   0.72140   0.22325   1.000
    Zn43    Zn   0.27860   0.58220   0.22325   1.000
    Zn44    Zn   0.41780   0.69641   0.22325   1.000
    Zn45    Zn   0.38806   0.63693   0.61009   1.000
    Zn46    Zn   0.24886   0.61194   0.61009   1.000
    Zn47    Zn   0.36307   0.75114   0.61009   1.000
    Zn48    Zn   0.36307   0.61194   0.11009   1.000
    Zn49    Zn   0.38806   0.75114   0.11009   1.000
    Zn50    Zn   0.24886   0.63693   0.11009   1.000
    Zn51    Zn   0.27860   0.69641   0.72325   1.000
    Zn52    Zn   0.41780   0.72140   0.72325   1.000
    Zn53    Zn   0.30359   0.58220   0.72325   1.000
    Zn54    Zn   0.66670   0.33330   0.03649   1.000
    Zn55    Zn   0.61158   0.24871   0.01378   1.000
    Zn56    Zn   0.63713   0.38842   0.01378   1.000
    Zn57    Zn   0.75129   0.36287   0.01378   1.000
    Zn58    Zn   0.75129   0.38842   0.51378   1.000
    Zn59    Zn   0.61158   0.36287   0.51378   1.000
    Zn60    Zn   0.63713   0.24871   0.51378   1.000
    Zn61    Zn   0.38842   0.75129   0.98622   1.000
    Zn62    Zn   0.36287   0.61158   0.98622   1.000
    Zn63    Zn   0.24871   0.63713   0.98622   1.000
    Zn64    Zn   0.91538   0.94491   0.81955   1.000
    Zn65    Zn   0.27825   0.58204   0.34711   1.000
    Zn66    Zn   0.30380   0.72175   0.34711   1.000
    Zn67    Zn   0.41796   0.69620   0.34711   1.000
    Zn68    Zn   0.41796   0.72175   0.84711   1.000
    Zn69    Zn   0.27825   0.69620   0.84711   1.000
    Zn70    Zn   0.30380   0.58204   0.84711   1.000
    Zn71    Zn   0.05509   0.08462   0.31955   1.000
    Zn72    Zn   0.02954   0.94491   0.31955   1.000
    Zn73    Zn   0.91538   0.97046   0.31955   1.000
    Zn74    Zn   0.58204   0.27825   0.15289   1.000
    Zn75    Zn   0.72175   0.30380   0.15289   1.000
    Zn76    Zn   0.69620   0.41796   0.15289   1.000
    Zn77    Zn   0.94491   0.91538   0.68045   1.000
    Zn78    Zn   0.97046   0.05509   0.68045   1.000
    Zn79    Zn   0.08462   0.02954   0.68045   1.000
    Zn80    Zn   0.08462   0.05509   0.18045   1.000
    Zn81    Zn   0.94491   0.02954   0.18045   1.000
    Zn82    Zn   0.97046   0.91538   0.18045   1.000
    Zn83    Zn   0.72175   0.41796   0.65289   1.000
    Zn84    Zn   0.69620   0.27825   0.65289   1.000
    Zn85    Zn   0.58204   0.30380   0.65289   1.000
    Zn86    Zn   0.66670   0.33330   0.53649   1.000
    Zn87    Zn   0.33330   0.66670   0.96351   1.000
    Zn88    Zn   0.99997   0.00003   0.79684   1.000
    Zn89    Zn   0.99997   0.99993   0.79684   1.000
    Zn90    Zn   0.00007   0.00003   0.79684   1.000
    Zn91    Zn   0.33337   0.66663   0.36982   1.000
    Zn92    Zn   0.33337   0.66663   0.86982   1.000
    Zn93    Zn   0.99997   0.00003   0.29684   1.000
    Zn94    Zn   0.00007   0.00003   0.29684   1.000
    Zn95    Zn   0.99997   0.99993   0.29684   1.000
    Zn96    Zn   0.66663   0.33337   0.13018   1.000
    Zn97    Zn   0.00003   0.99997   0.70316   1.000
    Zn98    Zn   0.99993   0.99997   0.70316   1.000
    Zn99    Zn   0.00003   0.00007   0.70316   1.000
    Zn100   Zn   0.00003   0.99997   0.20316   1.000
    Zn101   Zn   0.00003   0.00007   0.20316   1.000
    Zn102   Zn   0.99993   0.99997   0.20316   1.000
    Zn103   Zn   0.66663   0.33337   0.63018   1.000
